Circuit: * C:\Users\Lenovo\Documents\LTspiceXVII\Quartz Crystal Oscillator.asc

WARNING: Node N001 is floating.

Direct Newton iteration for .op point succeeded.

Date: Mon Jan 25 11:23:22 2021
Total elapsed time: 3.563 seconds.

tnom = 27
temp = 27
method = modified trap
totiter = 200038
traniter = 200034
tranpoints = 100018
accept = 100018
rejected = 0
matrix size = 7
fillins = 2
solver = Normal
Matrix Compiler1:      28 opcodes  0.3/[0.1]/0.1
Matrix Compiler2: off  [0.1]/0.1/0.1

